<?xml version="1.0" ?>
<additional>
    <tlLogic id="center" type="static" programID="fixed_time" offset="0">
        <phase duration="60" state="GGGGr"/>
        <phase duration="5" state="yyyyr"/>
        <phase duration="60" state="rrrrr"/>
        <phase duration="5" state="rrrrr"/>
        <phase duration="30" state="rrrrG"/>
        <phase duration="3" state="rrrrr"/>
    </tlLogic>
</additional>
