<?xml version="1.0" encoding="UTF-8"?>

<!-- generated on 2026-05-18T11:45:29.970806+01:00 by Eclipse SUMO netconvert 1.25.0
<netconvertConfiguration xmlns:xsi="http://www.w3.org/2001/XMLSchema-instance" xsi:noNamespaceSchemaLocation="http://sumo.dlr.de/xsd/netconvertConfiguration.xsd">

    <input>
        <node-files value="/home/erfan/sumo-deploy/sumo_config/my.nod.xml"/>
        <edge-files value="/home/erfan/sumo-deploy/sumo_config/my.edg.xml"/>
    </input>

    <output>
        <output-file value="/home/erfan/sumo-deploy/sumo_config/my.net.xml"/>
    </output>

    <pedestrian>
        <crossings.guess value="true"/>
        <walkingareas value="true"/>
    </pedestrian>

</netconvertConfiguration>
-->

<net version="1.20" junctionCornerDetail="5" walkingareas="true" limitTurnSpeed="5.50" xmlns:xsi="http://www.w3.org/2001/XMLSchema-instance" xsi:noNamespaceSchemaLocation="http://sumo.dlr.de/xsd/net_file.xsd">

    <location netOffset="100.00,100.00" convBoundary="0.00,0.00,200.00,200.00" origBoundary="-100.00,-100.00,100.00,100.00" projParameter="!"/>

    <edge id=":center_0" function="internal">
        <lane id=":center_0_0" index="0" disallow="pedestrian" speed="13.89" length="6.00" shape="95.20,103.00 95.20,97.00"/>
        <lane id=":center_0_1" index="1" disallow="pedestrian" speed="13.89" length="6.00" shape="98.40,103.00 98.40,97.00"/>
    </edge>
    <edge id=":center_2" function="internal">
        <lane id=":center_2_0" index="0" disallow="pedestrian" speed="13.89" length="6.00" shape="104.80,97.00 104.80,103.00"/>
        <lane id=":center_2_1" index="1" disallow="pedestrian" speed="13.89" length="6.00" shape="101.60,97.00 101.60,103.00"/>
    </edge>
    <edge id=":center_c0" function="crossing" crossingEdges="C2N N2C">
        <lane id=":center_c0_0" index="0" allow="pedestrian" speed="2.78" length="12.80" width="4.00" shape="106.40,100.00 93.60,100.00" outlineShape="106.50,102.00 93.50,102.00 93.60,98.00 106.40,98.00"/>
    </edge>
    <edge id=":center_w0" function="walkingarea">
        <lane id=":center_w0_0" index="0" allow="pedestrian" speed="2.78" length="3.50" width="4.00" shape="93.60,97.00 92.10,97.00 90.60,98.50 90.60,100.00 90.60,101.50 92.10,103.00 93.60,103.00 93.60,102.00 93.60,98.00"/>
    </edge>
    <edge id=":center_w1" function="walkingarea">
        <lane id=":center_w1_0" index="0" allow="pedestrian" speed="2.78" length="3.50" width="4.00" shape="106.40,98.00 106.40,102.00 106.40,103.00 107.90,103.00 109.40,101.50 109.40,100.00 109.40,98.50 107.90,97.00 106.40,97.00"/>
    </edge>
    <edge id=":e_w0" function="walkingarea">
        <lane id=":e_w0_0" index="0" allow="pedestrian" speed="2.78" length="1.50" width="3.00" shape="200.00,100.00 200.00,101.50 200.00,98.50 200.00,100.00"/>
    </edge>
    <edge id=":n_0" function="internal">
        <lane id=":n_0_0" index="0" disallow="pedestrian" speed="3.65" length="4.67" shape="101.60,200.00 100.80,201.20 100.00,201.60 99.20,201.20 98.40,200.00"/>
    </edge>
    <edge id=":n_w0" function="walkingarea">
        <lane id=":n_w0_0" index="0" allow="pedestrian" speed="2.78" length="14.30" width="1.50" shape="93.60,200.00 92.10,200.00 107.90,200.00 106.40,200.00"/>
    </edge>
    <edge id=":s_0" function="internal">
        <lane id=":s_0_0" index="0" disallow="pedestrian" speed="3.65" length="4.67" shape="98.40,0.00 99.20,-1.20 100.00,-1.60 100.80,-1.20 101.60,0.00"/>
    </edge>
    <edge id=":s_w0" function="walkingarea">
        <lane id=":s_w0_0" index="0" allow="pedestrian" speed="2.78" length="14.30" width="1.50" shape="106.40,0.00 107.90,0.00 92.10,0.00 93.60,0.00"/>
    </edge>
    <edge id=":w_w0" function="walkingarea">
        <lane id=":w_w0_0" index="0" allow="pedestrian" speed="2.78" length="1.50" width="3.00" shape="0.00,100.00 0.00,98.50 0.00,101.50 0.00,100.00"/>
    </edge>

    <edge id="C2E" from="center" to="e" priority="-1">
        <lane id="C2E_0" index="0" allow="pedestrian" speed="13.89" length="90.60" width="1.50" shape="109.40,99.25 200.00,99.25"/>
    </edge>
    <edge id="C2N" from="center" to="n" priority="-1">
        <lane id="C2N_0" index="0" allow="pedestrian" speed="13.89" length="97.00" width="1.50" shape="107.15,103.00 107.15,200.00"/>
        <lane id="C2N_1" index="1" disallow="pedestrian" speed="13.89" length="97.00" shape="104.80,103.00 104.80,200.00"/>
        <lane id="C2N_2" index="2" disallow="pedestrian" speed="13.89" length="97.00" shape="101.60,103.00 101.60,200.00"/>
    </edge>
    <edge id="C2S" from="center" to="s" priority="-1">
        <lane id="C2S_0" index="0" allow="pedestrian" speed="13.89" length="97.00" width="1.50" shape="92.85,97.00 92.85,0.00"/>
        <lane id="C2S_1" index="1" disallow="pedestrian" speed="13.89" length="97.00" shape="95.20,97.00 95.20,0.00"/>
        <lane id="C2S_2" index="2" disallow="pedestrian" speed="13.89" length="97.00" shape="98.40,97.00 98.40,0.00"/>
    </edge>
    <edge id="C2W" from="center" to="w" priority="-1">
        <lane id="C2W_0" index="0" allow="pedestrian" speed="13.89" length="90.60" width="1.50" shape="90.60,100.75 0.00,100.75"/>
    </edge>
    <edge id="E2C" from="e" to="center" priority="-1">
        <lane id="E2C_0" index="0" allow="pedestrian" speed="13.89" length="90.60" width="1.50" shape="200.00,100.75 109.40,100.75"/>
    </edge>
    <edge id="N2C" from="n" to="center" priority="-1">
        <lane id="N2C_0" index="0" allow="pedestrian" speed="13.89" length="97.00" width="1.50" shape="92.85,200.00 92.85,103.00"/>
        <lane id="N2C_1" index="1" disallow="pedestrian" speed="13.89" length="97.00" shape="95.20,200.00 95.20,103.00"/>
        <lane id="N2C_2" index="2" disallow="pedestrian" speed="13.89" length="97.00" shape="98.40,200.00 98.40,103.00"/>
    </edge>
    <edge id="S2C" from="s" to="center" priority="-1">
        <lane id="S2C_0" index="0" allow="pedestrian" speed="13.89" length="97.00" width="1.50" shape="107.15,0.00 107.15,97.00"/>
        <lane id="S2C_1" index="1" disallow="pedestrian" speed="13.89" length="97.00" shape="104.80,0.00 104.80,97.00"/>
        <lane id="S2C_2" index="2" disallow="pedestrian" speed="13.89" length="97.00" shape="101.60,0.00 101.60,97.00"/>
    </edge>
    <edge id="W2C" from="w" to="center" priority="-1">
        <lane id="W2C_0" index="0" allow="pedestrian" speed="13.89" length="90.60" width="1.50" shape="0.00,99.25 90.60,99.25"/>
    </edge>

    <tlLogic id="center" type="static" programID="0" offset="0">
        <phase duration="77" state="GGGGr"/>
        <phase duration="3"  state="yyyyr"/>
        <phase duration="5"  state="rrrrG"/>
        <phase duration="5"  state="rrrrr"/>
    </tlLogic>

    <junction id="center" type="traffic_light" x="100.00" y="100.00" incLanes="N2C_0 N2C_1 N2C_2 E2C_0 S2C_0 S2C_1 S2C_2 W2C_0 :center_w1_0" intLanes=":center_0_0 :center_0_1 :center_2_0 :center_2_1 :center_c0_0" shape="92.10,103.00 107.90,103.00 108.07,102.17 108.28,101.88 108.57,101.67 108.94,101.54 109.40,101.50 109.40,98.50 108.57,98.33 108.28,98.12 108.07,97.83 107.94,97.46 107.90,97.00 92.10,97.00 91.93,97.83 91.72,98.12 91.43,98.33 91.06,98.46 90.60,98.50 90.60,101.50 91.43,101.67 91.72,101.88 91.93,102.17 92.06,102.54">
        <request index="0" response="10000" foes="10000" cont="0"/>
        <request index="1" response="10000" foes="10000" cont="0"/>
        <request index="2" response="10000" foes="10000" cont="0"/>
        <request index="3" response="10000" foes="10000" cont="0"/>
        <request index="4" response="00000" foes="01111" cont="0"/>
    </junction>
    <junction id="e" type="dead_end" x="200.00" y="100.00" incLanes="C2E_0" intLanes="" shape="200.00,100.00 200.00,98.50 200.00,100.00"/>
    <junction id="n" type="priority" x="100.00" y="200.00" incLanes="C2N_0 C2N_1 C2N_2" intLanes=":n_0_0" shape="100.00,200.00 107.90,200.00 100.00,200.00">
        <request index="0" response="0" foes="0" cont="0"/>
    </junction>
    <junction id="s" type="priority" x="100.00" y="0.00" incLanes="C2S_0 C2S_1 C2S_2" intLanes=":s_0_0" shape="100.00,0.00 92.10,0.00 100.00,0.00">
        <request index="0" response="0" foes="0" cont="0"/>
    </junction>
    <junction id="w" type="dead_end" x="0.00" y="100.00" incLanes="C2W_0" intLanes="" shape="0.00,100.00 0.00,101.50 0.00,100.00"/>

    <connection from="C2N" to="N2C" fromLane="2" toLane="2" via=":n_0_0" dir="t" state="M"/>
    <connection from="C2S" to="S2C" fromLane="2" toLane="2" via=":s_0_0" dir="t" state="M"/>
    <connection from="N2C" to="C2S" fromLane="1" toLane="1" via=":center_0_0" tl="center" linkIndex="0" dir="s" state="o"/>
    <connection from="N2C" to="C2S" fromLane="2" toLane="2" via=":center_0_1" tl="center" linkIndex="1" dir="s" state="o"/>
    <connection from="S2C" to="C2N" fromLane="1" toLane="1" via=":center_2_0" tl="center" linkIndex="2" dir="s" state="o"/>
    <connection from="S2C" to="C2N" fromLane="2" toLane="2" via=":center_2_1" tl="center" linkIndex="3" dir="s" state="o"/>

    <connection from=":center_0" to="C2S" fromLane="0" toLane="1" dir="s" state="M"/>
    <connection from=":center_0" to="C2S" fromLane="1" toLane="2" dir="s" state="M"/>
    <connection from=":center_2" to="C2N" fromLane="0" toLane="1" dir="s" state="M"/>
    <connection from=":center_2" to="C2N" fromLane="1" toLane="2" dir="s" state="M"/>
    <connection from=":n_0" to="N2C" fromLane="0" toLane="2" dir="t" state="M"/>
    <connection from=":s_0" to="S2C" fromLane="0" toLane="2" dir="t" state="M"/>

    <connection from=":center_c0" to=":center_w0" fromLane="0" toLane="0" dir="s" state="M"/>
    <connection from=":center_w0" to="C2S" fromLane="0" toLane="0" dir="s" state="M"/>
    <connection from=":center_w0" to="C2W" fromLane="0" toLane="0" dir="s" state="M"/>
    <connection from="W2C" to=":center_w0" fromLane="0" toLane="0" dir="s" state="M"/>
    <connection from="N2C" to=":center_w0" fromLane="0" toLane="0" dir="s" state="M"/>
    <connection from=":center_w1" to=":center_c0" fromLane="0" toLane="0" tl="center" linkIndex="4" dir="s" state="M"/>
    <connection from=":center_w1" to="C2N" fromLane="0" toLane="0" dir="s" state="M"/>
    <connection from=":center_w1" to="C2E" fromLane="0" toLane="0" dir="s" state="M"/>
    <connection from="E2C" to=":center_w1" fromLane="0" toLane="0" dir="s" state="M"/>
    <connection from="S2C" to=":center_w1" fromLane="0" toLane="0" dir="s" state="M"/>
    <connection from=":e_w0" to="E2C" fromLane="0" toLane="0" dir="s" state="M"/>
    <connection from="C2E" to=":e_w0" fromLane="0" toLane="0" dir="s" state="M"/>
    <connection from=":n_w0" to="N2C" fromLane="0" toLane="0" dir="s" state="M"/>
    <connection from="C2N" to=":n_w0" fromLane="0" toLane="0" dir="s" state="M"/>
    <connection from=":s_w0" to="S2C" fromLane="0" toLane="0" dir="s" state="M"/>
    <connection from="C2S" to=":s_w0" fromLane="0" toLane="0" dir="s" state="M"/>
    <connection from=":w_w0" to="W2C" fromLane="0" toLane="0" dir="s" state="M"/>
    <connection from="C2W" to=":w_w0" fromLane="0" toLane="0" dir="s" state="M"/>
</net>
