<?xml version='1.0' encoding='utf-8'?>
<routes><vType id="pedestrian" vClass="pedestrian" maxSpeed="1.4" length="0.5" /><vType id="car" vClass="passenger" maxSpeed="13.89" length="5.0" /><vType id="bus" vClass="bus" maxSpeed="13.89" length="12.0" /><vType id="emergency" vClass="emergency" maxSpeed="13.89" length="5.0" guiShape="emergency" color="1,0,0" /><vType id="truck" vClass="truck" maxSpeed="13.89" length="15.0" /><vType id="motorcycle" vClass="motorcycle" maxSpeed="18.0" length="2.0" /><person id="p_0" depart="0"><walk from="E2C" to="C2W" departPos="-5.0" arrivalPos="5.0" /></person><trip id="v_0" type="car" depart="1" from="N2C" to="C2S" departLane="best" departSpeed="max" /><trip id="v_1" type="truck" depart="1" from="N2C" to="C2S" departLane="best" departSpeed="max" /><trip id="v_2" type="truck" depart="1" from="N2C" to="C2S" departLane="best" departSpeed="max" /><trip id="v_3" type="truck" depart="1" from="N2C" to="C2S" departLane="best" departSpeed="max" /><trip id="v_4" type="truck" depart="3" from="N2C" to="C2S" departLane="best" departSpeed="max" /><trip id="v_5" type="truck" depart="3" from="N2C" to="C2S" departLane="best" departSpeed="max" /><person id="p_1" depart="9"><walk from="E2C" to="C2W" departPos="-5.0" arrivalPos="5.0" /></person><trip id="v_6" type="car" depart="12" from="N2C" to="C2S" departLane="best" departSpeed="max" /><trip id="v_7" type="car" depart="13" from="N2C" to="C2S" departLane="best" departSpeed="max" /><trip id="v_8" type="car" depart="13" from="N2C" to="C2S" departLane="best" departSpeed="max" /><trip id="v_9" type="car" depart="13" from="N2C" to="C2S" departLane="best" departSpeed="max" /><trip id="v_10" type="car" depart="13" from="N2C" to="C2S" departLane="best" departSpeed="max" /><person id="p_2" depart="13"><walk from="E2C" to="C2W" departPos="-5.0" arrivalPos="5.0" /></person><person id="p_3" depart="17"><walk from="E2C" to="C2W" departPos="-5.0" arrivalPos="5.0" /></person><person id="p_4" depart="20"><walk from="E2C" to="C2W" departPos="-5.0" arrivalPos="5.0" /></person><trip id="v_11" type="car" depart="23" from="N2C" to="C2S" departLane="best" departSpeed="max" /><trip id="v_12" type="car" depart="23" from="N2C" to="C2S" departLane="best" departSpeed="max" /><trip id="v_13" type="car" depart="23" from="N2C" to="C2S" departLane="best" departSpeed="max" /><trip id="v_14" type="car" depart="24" from="N2C" to="C2S" departLane="best" departSpeed="max" /><trip id="v_15" type="car" depart="25" from="N2C" to="C2S" departLane="best" departSpeed="max" /><trip id="v_16" type="car" depart="26" from="N2C" to="C2S" departLane="best" departSpeed="max" /><person id="p_5" depart="37"><walk from="E2C" to="C2W" departPos="-5.0" arrivalPos="5.0" /></person><trip id="v_17" type="motorcycle" depart="38" from="S2C" to="C2N" departLane="best" departSpeed="max" /><trip id="v_18" type="car" depart="39" from="N2C" to="C2S" departLane="best" departSpeed="max" /><trip id="v_19" type="car" depart="40" from="N2C" to="C2S" departLane="best" departSpeed="max" /><trip id="v_20" type="car" depart="40" from="N2C" to="C2S" departLane="best" departSpeed="max" /><trip id="v_21" type="car" depart="40" from="N2C" to="C2S" departLane="best" departSpeed="max" /><trip id="v_22" type="car" depart="41" from="S2C" to="C2N" departLane="best" departSpeed="max" /><trip id="v_23" type="car" depart="41" from="S2C" to="C2N" departLane="best" departSpeed="max" /><trip id="v_24" type="car" depart="41" from="S2C" to="C2N" departLane="best" departSpeed="max" /><trip id="v_25" type="car" depart="43" from="S2C" to="C2N" departLane="best" departSpeed="max" /><trip id="v_26" type="car" depart="45" from="S2C" to="C2N" departLane="best" departSpeed="max" /><trip id="v_27" type="car" depart="47" from="S2C" to="C2N" departLane="best" departSpeed="max" /><trip id="v_28" type="car" depart="47" from="S2C" to="C2N" departLane="best" departSpeed="max" /><person id="p_6" depart="48"><walk from="E2C" to="C2W" departPos="-5.0" arrivalPos="5.0" /></person><trip id="v_29" type="car" depart="49" from="S2C" to="C2N" departLane="best" departSpeed="max" /><trip id="v_30" type="motorcycle" depart="51" from="S2C" to="C2N" departLane="best" departSpeed="max" /><trip id="v_31" type="motorcycle" depart="51" from="S2C" to="C2N" departLane="best" departSpeed="max" /><trip id="v_32" type="motorcycle" depart="52" from="S2C" to="C2N" departLane="best" departSpeed="max" /><trip id="v_33" type="car" depart="53" from="S2C" to="C2N" departLane="best" departSpeed="max" /><trip id="v_34" type="car" depart="53" from="S2C" to="C2N" departLane="best" departSpeed="max" /><trip id="v_35" type="motorcycle" depart="53" from="S2C" to="C2N" departLane="best" departSpeed="max" /><trip id="v_36" type="motorcycle" depart="53" from="S2C" to="C2N" departLane="best" departSpeed="max" /><trip id="v_37" type="car" depart="56" from="S2C" to="C2N" departLane="best" departSpeed="max" /><trip id="v_38" type="car" depart="56" from="S2C" to="C2N" departLane="best" departSpeed="max" /><trip id="v_39" type="car" depart="59" from="S2C" to="C2N" departLane="best" departSpeed="max" /><trip id="v_40" type="car" depart="59" from="S2C" to="C2N" departLane="best" departSpeed="max" /><trip id="v_41" type="car" depart="60" from="N2C" to="C2S" departLane="best" departSpeed="max" /><trip id="v_42" type="car" depart="61" from="S2C" to="C2N" departLane="best" departSpeed="max" /><trip id="v_43" type="car" depart="61" from="N2C" to="C2S" departLane="best" departSpeed="max" /><trip id="v_44" type="car" depart="61" from="N2C" to="C2S" departLane="best" departSpeed="max" /><trip id="v_45" type="car" depart="62" from="S2C" to="C2N" departLane="best" departSpeed="max" /><trip id="v_46" type="car" depart="62" from="S2C" to="C2N" departLane="best" departSpeed="max" /><trip id="v_47" type="car" depart="68" from="S2C" to="C2N" departLane="best" departSpeed="max" /><trip id="v_48" type="car" depart="81" from="N2C" to="C2S" departLane="best" departSpeed="max" /><trip id="v_49" type="car" depart="81" from="N2C" to="C2S" departLane="best" departSpeed="max" /><trip id="v_50" type="car" depart="81" from="N2C" to="C2S" departLane="best" departSpeed="max" /><person id="p_7" depart="93"><walk from="E2C" to="C2W" departPos="-5.0" arrivalPos="5.0" /></person><person id="p_8" depart="93"><walk from="E2C" to="C2W" departPos="-5.0" arrivalPos="5.0" /></person><person id="p_9" depart="93"><walk from="E2C" to="C2W" departPos="-5.0" arrivalPos="5.0" /></person><trip id="v_51" type="car" depart="94" from="N2C" to="C2S" departLane="best" departSpeed="max" /><trip id="v_52" type="car" depart="94" from="N2C" to="C2S" departLane="best" departSpeed="max" /><trip id="v_53" type="car" depart="95" from="N2C" to="C2S" departLane="best" departSpeed="max" /><trip id="v_54" type="car" depart="95" from="N2C" to="C2S" departLane="best" departSpeed="max" /><trip id="v_55" type="car" depart="95" from="N2C" to="C2S" departLane="best" departSpeed="max" /><trip id="v_56" type="car" depart="95" from="N2C" to="C2S" departLane="best" departSpeed="max" /><trip id="v_57" type="car" depart="107" from="N2C" to="C2S" departLane="best" departSpeed="max" /><trip id="v_58" type="truck" depart="110" from="N2C" to="C2S" departLane="best" departSpeed="max" /><trip id="v_59" type="truck" depart="110" from="N2C" to="C2S" departLane="best" departSpeed="max" /><trip id="v_60" type="car" depart="111" from="N2C" to="C2S" departLane="best" departSpeed="max" /><trip id="v_61" type="car" depart="112" from="S2C" to="C2N" departLane="best" departSpeed="max" /><trip id="v_62" type="car" depart="113" from="S2C" to="C2N" departLane="best" departSpeed="max" /><person id="p_10" depart="115"><walk from="E2C" to="C2W" departPos="-5.0" arrivalPos="5.0" /></person><trip id="v_63" type="truck" depart="117" from="S2C" to="C2N" departLane="best" departSpeed="max" /><trip id="v_64" type="bus" depart="119" from="S2C" to="C2N" departLane="best" departSpeed="max" /><trip id="v_65" type="bus" depart="122" from="S2C" to="C2N" departLane="best" departSpeed="max" /><trip id="v_66" type="car" depart="123" from="S2C" to="C2N" departLane="best" departSpeed="max" /><person id="p_11" depart="123"><walk from="E2C" to="C2W" departPos="-5.0" arrivalPos="5.0" /></person><trip id="v_67" type="truck" depart="124" from="S2C" to="C2N" departLane="best" departSpeed="max" /><trip id="v_68" type="truck" depart="124" from="S2C" to="C2N" departLane="best" departSpeed="max" /><person id="p_12" depart="124"><walk from="E2C" to="C2W" departPos="-5.0" arrivalPos="5.0" /></person><person id="p_13" depart="124"><walk from="E2C" to="C2W" departPos="-5.0" arrivalPos="5.0" /></person><person id="p_14" depart="128"><walk from="E2C" to="C2W" departPos="-5.0" arrivalPos="5.0" /></person><person id="p_15" depart="128"><walk from="E2C" to="C2W" departPos="-5.0" arrivalPos="5.0" /></person><trip id="v_69" type="car" depart="131" from="N2C" to="C2S" departLane="best" departSpeed="max" /><trip id="v_70" type="car" depart="131" from="N2C" to="C2S" departLane="best" departSpeed="max" /><trip id="v_71" type="car" depart="132" from="N2C" to="C2S" departLane="best" departSpeed="max" /><trip id="v_72" type="car" depart="132" from="N2C" to="C2S" departLane="best" departSpeed="max" /><trip id="v_73" type="car" depart="134" from="N2C" to="C2S" departLane="best" departSpeed="max" /><trip id="v_74" type="car" depart="135" from="S2C" to="C2N" departLane="best" departSpeed="max" /><trip id="v_75" type="car" depart="136" from="N2C" to="C2S" departLane="best" departSpeed="max" /><trip id="v_76" type="bus" depart="137" from="S2C" to="C2N" departLane="best" departSpeed="max" /><trip id="v_77" type="bus" depart="137" from="S2C" to="C2N" departLane="best" departSpeed="max" /><person id="p_16" depart="140"><walk from="E2C" to="C2W" departPos="-5.0" arrivalPos="5.0" /></person><trip id="v_78" type="car" depart="141" from="S2C" to="C2N" departLane="best" departSpeed="max" /><trip id="v_79" type="bus" depart="142" from="S2C" to="C2N" departLane="best" departSpeed="max" /><trip id="v_80" type="car" depart="145" from="N2C" to="C2S" departLane="best" departSpeed="max" /><trip id="v_81" type="car" depart="148" from="S2C" to="C2N" departLane="best" departSpeed="max" /><trip id="v_82" type="car" depart="148" from="S2C" to="C2N" departLane="best" departSpeed="max" /><trip id="v_83" type="car" depart="148" from="S2C" to="C2N" departLane="best" departSpeed="max" /><trip id="v_84" type="car" depart="150" from="S2C" to="C2N" departLane="best" departSpeed="max" /><trip id="v_85" type="car" depart="151" from="S2C" to="C2N" departLane="best" departSpeed="max" /><person id="p_17" depart="151"><walk from="E2C" to="C2W" departPos="-5.0" arrivalPos="5.0" /></person><trip id="v_86" type="car" depart="154" from="S2C" to="C2N" departLane="best" departSpeed="max" /><trip id="v_87" type="car" depart="154" from="S2C" to="C2N" departLane="best" departSpeed="max" /><trip id="v_88" type="car" depart="157" from="N2C" to="C2S" departLane="best" departSpeed="max" /><trip id="v_89" type="car" depart="160" from="N2C" to="C2S" departLane="best" departSpeed="max" /><trip id="v_90" type="car" depart="163" from="S2C" to="C2N" departLane="best" departSpeed="max" /><trip id="v_91" type="car" depart="164" from="S2C" to="C2N" departLane="best" departSpeed="max" /><trip id="v_92" type="car" depart="164" from="N2C" to="C2S" departLane="best" departSpeed="max" /><trip id="v_93" type="car" depart="164" from="N2C" to="C2S" departLane="best" departSpeed="max" /><person id="p_18" depart="164"><walk from="E2C" to="C2W" departPos="-5.0" arrivalPos="5.0" /></person><trip id="v_94" type="car" depart="165" from="S2C" to="C2N" departLane="best" departSpeed="max" /><person id="p_19" depart="165"><walk from="E2C" to="C2W" departPos="-5.0" arrivalPos="5.0" /></person><trip id="v_95" type="car" depart="168" from="N2C" to="C2S" departLane="best" departSpeed="max" /><trip id="v_96" type="car" depart="168" from="N2C" to="C2S" departLane="best" departSpeed="max" /><trip id="v_97" type="car" depart="171" from="S2C" to="C2N" departLane="best" departSpeed="max" /><trip id="v_98" type="car" depart="172" from="S2C" to="C2N" departLane="best" departSpeed="max" /><trip id="v_99" type="car" depart="172" from="N2C" to="C2S" departLane="best" departSpeed="max" /><trip id="v_100" type="car" depart="176" from="N2C" to="C2S" departLane="best" departSpeed="max" /><trip id="v_101" type="car" depart="177" from="N2C" to="C2S" departLane="best" departSpeed="max" /><person id="p_20" depart="179"><walk from="E2C" to="C2W" departPos="-5.0" arrivalPos="5.0" /></person><person id="p_21" depart="180"><walk from="E2C" to="C2W" departPos="-5.0" arrivalPos="5.0" /></person><trip id="v_102" type="car" depart="184" from="N2C" to="C2S" departLane="best" departSpeed="max" /><trip id="v_103" type="car" depart="189" from="N2C" to="C2S" departLane="best" departSpeed="max" /><trip id="v_104" type="car" depart="191" from="N2C" to="C2S" departLane="best" departSpeed="max" /><trip id="v_105" type="car" depart="199" from="N2C" to="C2S" departLane="best" departSpeed="max" /><trip id="v_106" type="car" depart="200" from="N2C" to="C2S" departLane="best" departSpeed="max" /><trip id="v_107" type="car" depart="201" from="N2C" to="C2S" departLane="best" departSpeed="max" /><trip id="v_108" type="car" depart="201" from="N2C" to="C2S" departLane="best" departSpeed="max" /><person id="p_22" depart="205"><walk from="E2C" to="C2W" departPos="-5.0" arrivalPos="5.0" /></person><person id="p_23" depart="207"><walk from="E2C" to="C2W" departPos="-5.0" arrivalPos="5.0" /></person><person id="p_24" depart="209"><walk from="E2C" to="C2W" departPos="-5.0" arrivalPos="5.0" /></person><person id="p_25" depart="210"><walk from="E2C" to="C2W" departPos="-5.0" arrivalPos="5.0" /></person><person id="p_26" depart="210"><walk from="E2C" to="C2W" departPos="-5.0" arrivalPos="5.0" /></person><trip id="v_109" type="truck" depart="212" from="N2C" to="C2S" departLane="best" departSpeed="max" /><trip id="v_110" type="car" depart="213" from="N2C" to="C2S" departLane="best" departSpeed="max" /><trip id="v_111" type="car" depart="216" from="N2C" to="C2S" departLane="best" departSpeed="max" /><person id="p_27" depart="218"><walk from="E2C" to="C2W" departPos="-5.0" arrivalPos="5.0" /></person><trip id="v_112" type="car" depart="220" from="N2C" to="C2S" departLane="best" departSpeed="max" /><person id="p_28" depart="221"><walk from="E2C" to="C2W" departPos="-5.0" arrivalPos="5.0" /></person><trip id="v_113" type="car" depart="222" from="N2C" to="C2S" departLane="best" departSpeed="max" /><person id="p_29" depart="222"><walk from="E2C" to="C2W" departPos="-5.0" arrivalPos="5.0" /></person><trip id="v_114" type="car" depart="229" from="N2C" to="C2S" departLane="best" departSpeed="max" /><trip id="v_115" type="car" depart="231" from="N2C" to="C2S" departLane="best" departSpeed="max" /><trip id="v_116" type="car" depart="233" from="N2C" to="C2S" departLane="best" departSpeed="max" /><trip id="v_117" type="truck" depart="233" from="N2C" to="C2S" departLane="best" departSpeed="max" /><trip id="v_118" type="car" depart="235" from="N2C" to="C2S" departLane="best" departSpeed="max" /><trip id="v_119" type="car" depart="235" from="N2C" to="C2S" departLane="best" departSpeed="max" /><trip id="v_120" type="car" depart="242" from="S2C" to="C2N" departLane="best" departSpeed="max" /><trip id="v_121" type="car" depart="242" from="S2C" to="C2N" departLane="best" departSpeed="max" /><trip id="v_122" type="car" depart="242" from="S2C" to="C2N" departLane="best" departSpeed="max" /><trip id="v_123" type="car" depart="242" from="S2C" to="C2N" departLane="best" departSpeed="max" /><trip id="v_124" type="car" depart="243" from="S2C" to="C2N" departLane="best" departSpeed="max" /><person id="p_30" depart="244"><walk from="E2C" to="C2W" departPos="-5.0" arrivalPos="5.0" /></person><person id="p_31" depart="244"><walk from="E2C" to="C2W" departPos="-5.0" arrivalPos="5.0" /></person><trip id="v_125" type="car" depart="246" from="N2C" to="C2S" departLane="best" departSpeed="max" /><trip id="v_126" type="car" depart="247" from="S2C" to="C2N" departLane="best" departSpeed="max" /><trip id="v_127" type="car" depart="247" from="N2C" to="C2S" departLane="best" departSpeed="max" /><trip id="v_128" type="car" depart="247" from="N2C" to="C2S" departLane="best" departSpeed="max" /><trip id="v_129" type="car" depart="247" from="N2C" to="C2S" departLane="best" departSpeed="max" /><trip id="v_130" type="truck" depart="253" from="S2C" to="C2N" departLane="best" departSpeed="max" /><trip id="v_131" type="car" depart="253" from="N2C" to="C2S" departLane="best" departSpeed="max" /><trip id="v_132" type="car" depart="255" from="S2C" to="C2N" departLane="best" departSpeed="max" /><person id="p_32" depart="256"><walk from="E2C" to="C2W" departPos="-5.0" arrivalPos="5.0" /></person><trip id="v_133" type="car" depart="258" from="S2C" to="C2N" departLane="best" departSpeed="max" /><trip id="v_134" type="car" depart="259" from="S2C" to="C2N" departLane="best" departSpeed="max" /><trip id="v_135" type="car" depart="260" from="N2C" to="C2S" departLane="best" departSpeed="max" /><trip id="v_136" type="truck" depart="265" from="S2C" to="C2N" departLane="best" departSpeed="max" /><person id="p_33" depart="266"><walk from="E2C" to="C2W" departPos="-5.0" arrivalPos="5.0" /></person><trip id="v_137" type="car" depart="267" from="N2C" to="C2S" departLane="best" departSpeed="max" /><trip id="v_138" type="car" depart="268" from="N2C" to="C2S" departLane="best" departSpeed="max" /><trip id="v_139" type="car" depart="268" from="N2C" to="C2S" departLane="best" departSpeed="max" /><person id="p_34" depart="268"><walk from="E2C" to="C2W" departPos="-5.0" arrivalPos="5.0" /></person><trip id="v_140" type="car" depart="270" from="S2C" to="C2N" departLane="best" departSpeed="max" /><person id="p_35" depart="270"><walk from="E2C" to="C2W" departPos="-5.0" arrivalPos="5.0" /></person><trip id="v_141" type="car" depart="272" from="S2C" to="C2N" departLane="best" departSpeed="max" /><trip id="v_142" type="bus" depart="273" from="N2C" to="C2S" departLane="best" departSpeed="max" /><trip id="v_143" type="bus" depart="273" from="N2C" to="C2S" departLane="best" departSpeed="max" /><person id="p_36" depart="273"><walk from="E2C" to="C2W" departPos="-5.0" arrivalPos="5.0" /></person><trip id="v_144" type="bus" depart="275" from="N2C" to="C2S" departLane="best" departSpeed="max" /><person id="p_37" depart="275"><walk from="E2C" to="C2W" departPos="-5.0" arrivalPos="5.0" /></person><person id="p_38" depart="276"><walk from="E2C" to="C2W" departPos="-5.0" arrivalPos="5.0" /></person><person id="p_39" depart="278"><walk from="E2C" to="C2W" departPos="-5.0" arrivalPos="5.0" /></person><trip id="v_145" type="car" depart="280" from="S2C" to="C2N" departLane="best" departSpeed="max" /><trip id="v_146" type="car" depart="282" from="S2C" to="C2N" departLane="best" departSpeed="max" /><trip id="v_147" type="car" depart="285" from="N2C" to="C2S" departLane="best" departSpeed="max" /><trip id="v_148" type="car" depart="287" from="N2C" to="C2S" departLane="best" departSpeed="max" /><trip id="v_149" type="car" depart="297" from="N2C" to="C2S" departLane="best" departSpeed="max" /><trip id="v_150" type="car" depart="297" from="N2C" to="C2S" departLane="best" departSpeed="max" /><trip id="v_151" type="car" depart="297" from="N2C" to="C2S" departLane="best" departSpeed="max" /><person id="p_40" depart="299"><walk from="E2C" to="C2W" departPos="-5.0" arrivalPos="5.0" /></person><trip id="v_152" type="car" depart="300" from="S2C" to="C2N" departLane="best" departSpeed="max" /><person id="p_41" depart="300"><walk from="E2C" to="C2W" departPos="-5.0" arrivalPos="5.0" /></person><trip id="v_153" type="car" depart="301" from="N2C" to="C2S" departLane="best" departSpeed="max" /><trip id="v_154" type="car" depart="305" from="N2C" to="C2S" departLane="best" departSpeed="max" /><trip id="v_155" type="car" depart="313" from="N2C" to="C2S" departLane="best" departSpeed="max" /><trip id="v_156" type="car" depart="319" from="N2C" to="C2S" departLane="best" departSpeed="max" /><trip id="v_157" type="car" depart="319" from="N2C" to="C2S" departLane="best" departSpeed="max" /><trip id="v_158" type="car" depart="328" from="S2C" to="C2N" departLane="best" departSpeed="max" /><trip id="v_159" type="car" depart="330" from="S2C" to="C2N" departLane="best" departSpeed="max" /><trip id="v_160" type="car" depart="332" from="S2C" to="C2N" departLane="best" departSpeed="max" /><trip id="v_161" type="car" depart="332" from="N2C" to="C2S" departLane="best" departSpeed="max" /><trip id="v_162" type="car" depart="333" from="S2C" to="C2N" departLane="best" departSpeed="max" /><trip id="v_163" type="car" depart="334" from="S2C" to="C2N" departLane="best" departSpeed="max" /><trip id="v_164" type="car" depart="334" from="S2C" to="C2N" departLane="best" departSpeed="max" /><trip id="v_165" type="car" depart="334" from="N2C" to="C2S" departLane="best" departSpeed="max" /><trip id="v_166" type="car" depart="335" from="S2C" to="C2N" departLane="best" departSpeed="max" /><trip id="v_167" type="car" depart="335" from="S2C" to="C2N" departLane="best" departSpeed="max" /><trip id="v_168" type="car" depart="335" from="N2C" to="C2S" departLane="best" departSpeed="max" /><trip id="v_169" type="car" depart="335" from="N2C" to="C2S" departLane="best" departSpeed="max" /><trip id="v_170" type="car" depart="335" from="N2C" to="C2S" departLane="best" departSpeed="max" /><trip id="v_171" type="car" depart="336" from="S2C" to="C2N" departLane="best" departSpeed="max" /><trip id="v_172" type="car" depart="336" from="S2C" to="C2N" departLane="best" departSpeed="max" /><trip id="v_173" type="car" depart="336" from="N2C" to="C2S" departLane="best" departSpeed="max" /><trip id="v_174" type="car" depart="338" from="N2C" to="C2S" departLane="best" departSpeed="max" /><trip id="v_175" type="car" depart="344" from="N2C" to="C2S" departLane="best" departSpeed="max" /><trip id="v_176" type="car" depart="349" from="S2C" to="C2N" departLane="best" departSpeed="max" /><trip id="v_177" type="car" depart="351" from="S2C" to="C2N" departLane="best" departSpeed="max" /><trip id="v_178" type="car" depart="352" from="S2C" to="C2N" departLane="best" departSpeed="max" /><trip id="v_179" type="car" depart="357" from="N2C" to="C2S" departLane="best" departSpeed="max" /><trip id="v_180" type="car" depart="357" from="N2C" to="C2S" departLane="best" departSpeed="max" /><person id="p_42" depart="357"><walk from="E2C" to="C2W" departPos="-5.0" arrivalPos="5.0" /></person><trip id="v_181" type="car" depart="359" from="N2C" to="C2S" departLane="best" departSpeed="max" /><trip id="v_182" type="car" depart="360" from="N2C" to="C2S" departLane="best" departSpeed="max" /><trip id="v_183" type="car" depart="361" from="N2C" to="C2S" departLane="best" departSpeed="max" /><trip id="v_184" type="car" depart="369" from="N2C" to="C2S" departLane="best" departSpeed="max" /><trip id="v_185" type="emergency" depart="370" from="N2C" to="C2S" departLane="best" departSpeed="max" /><trip id="v_186" type="car" depart="371" from="N2C" to="C2S" departLane="best" departSpeed="max" /><trip id="v_187" type="car" depart="379" from="N2C" to="C2S" departLane="best" departSpeed="max" /><person id="p_43" depart="390"><walk from="E2C" to="C2W" departPos="-5.0" arrivalPos="5.0" /></person><person id="p_44" depart="390"><walk from="E2C" to="C2W" departPos="-5.0" arrivalPos="5.0" /></person><person id="p_45" depart="391"><walk from="E2C" to="C2W" departPos="-5.0" arrivalPos="5.0" /></person><person id="p_46" depart="391"><walk from="E2C" to="C2W" departPos="-5.0" arrivalPos="5.0" /></person><person id="p_47" depart="394"><walk from="E2C" to="C2W" departPos="-5.0" arrivalPos="5.0" /></person><person id="p_48" depart="396"><walk from="E2C" to="C2W" departPos="-5.0" arrivalPos="5.0" /></person><person id="p_49" depart="397"><walk from="E2C" to="C2W" departPos="-5.0" arrivalPos="5.0" /></person><person id="p_50" depart="397"><walk from="E2C" to="C2W" departPos="-5.0" arrivalPos="5.0" /></person><trip id="v_188" type="car" depart="424" from="N2C" to="C2S" departLane="best" departSpeed="max" /><trip id="v_189" type="car" depart="425" from="N2C" to="C2S" departLane="best" departSpeed="max" /><trip id="v_190" type="car" depart="432" from="S2C" to="C2N" departLane="best" departSpeed="max" /><trip id="v_191" type="car" depart="434" from="S2C" to="C2N" departLane="best" departSpeed="max" /><trip id="v_192" type="car" depart="434" from="N2C" to="C2S" departLane="best" departSpeed="max" /><trip id="v_193" type="car" depart="435" from="N2C" to="C2S" departLane="best" departSpeed="max" /><trip id="v_194" type="car" depart="436" from="N2C" to="C2S" departLane="best" departSpeed="max" /><trip id="v_195" type="car" depart="439" from="N2C" to="C2S" departLane="best" departSpeed="max" /><trip id="v_196" type="car" depart="444" from="S2C" to="C2N" departLane="best" departSpeed="max" /><trip id="v_197" type="car" depart="444" from="S2C" to="C2N" departLane="best" departSpeed="max" /><trip id="v_198" type="car" depart="445" from="S2C" to="C2N" departLane="best" departSpeed="max" /><trip id="v_199" type="car" depart="446" from="N2C" to="C2S" departLane="best" departSpeed="max" /><trip id="v_200" type="car" depart="446" from="N2C" to="C2S" departLane="best" departSpeed="max" /><trip id="v_201" type="car" depart="448" from="S2C" to="C2N" departLane="best" departSpeed="max" /><trip id="v_202" type="truck" depart="448" from="S2C" to="C2N" departLane="best" departSpeed="max" /><trip id="v_203" type="truck" depart="448" from="S2C" to="C2N" departLane="best" departSpeed="max" /><trip id="v_204" type="truck" depart="448" from="N2C" to="C2S" departLane="best" departSpeed="max" /><trip id="v_205" type="truck" depart="448" from="N2C" to="C2S" departLane="best" departSpeed="max" /><trip id="v_206" type="car" depart="449" from="N2C" to="C2S" departLane="best" departSpeed="max" /><trip id="v_207" type="car" depart="450" from="S2C" to="C2N" departLane="best" departSpeed="max" /><trip id="v_208" type="car" depart="450" from="N2C" to="C2S" departLane="best" departSpeed="max" /><trip id="v_209" type="car" depart="451" from="S2C" to="C2N" departLane="best" departSpeed="max" /><trip id="v_210" type="car" depart="461" from="S2C" to="C2N" departLane="best" departSpeed="max" /><trip id="v_211" type="car" depart="461" from="S2C" to="C2N" departLane="best" departSpeed="max" /><trip id="v_212" type="car" depart="461" from="S2C" to="C2N" departLane="best" departSpeed="max" /><trip id="v_213" type="car" depart="461" from="S2C" to="C2N" departLane="best" departSpeed="max" /><trip id="v_214" type="car" depart="463" from="S2C" to="C2N" departLane="best" departSpeed="max" /><person id="p_51" depart="471"><walk from="E2C" to="C2W" departPos="-5.0" arrivalPos="5.0" /></person><trip id="v_215" type="car" depart="472" from="S2C" to="C2N" departLane="best" departSpeed="max" /><trip id="v_216" type="car" depart="474" from="N2C" to="C2S" departLane="best" departSpeed="max" /><person id="p_52" depart="476"><walk from="E2C" to="C2W" departPos="-5.0" arrivalPos="5.0" /></person><trip id="v_217" type="car" depart="478" from="S2C" to="C2N" departLane="best" departSpeed="max" /><person id="p_53" depart="480"><walk from="E2C" to="C2W" departPos="-5.0" arrivalPos="5.0" /></person><person id="p_54" depart="482"><walk from="E2C" to="C2W" departPos="-5.0" arrivalPos="5.0" /></person><trip id="v_218" type="car" depart="502" from="N2C" to="C2S" departLane="best" departSpeed="max" /><trip id="v_219" type="car" depart="504" from="N2C" to="C2S" departLane="best" departSpeed="max" /><trip id="v_220" type="car" depart="521" from="N2C" to="C2S" departLane="best" departSpeed="max" /><trip id="v_221" type="car" depart="522" from="N2C" to="C2S" departLane="best" departSpeed="max" /><trip id="v_222" type="car" depart="522" from="N2C" to="C2S" departLane="best" departSpeed="max" /><trip id="v_223" type="car" depart="524" from="N2C" to="C2S" departLane="best" departSpeed="max" /><trip id="v_224" type="car" depart="526" from="S2C" to="C2N" departLane="best" departSpeed="max" /><trip id="v_225" type="car" depart="531" from="N2C" to="C2S" departLane="best" departSpeed="max" /><person id="p_55" depart="532"><walk from="E2C" to="C2W" departPos="-5.0" arrivalPos="5.0" /></person><trip id="v_226" type="car" depart="536" from="N2C" to="C2S" departLane="best" departSpeed="max" /><trip id="v_227" type="car" depart="538" from="S2C" to="C2N" departLane="best" departSpeed="max" /><trip id="v_228" type="car" depart="539" from="N2C" to="C2S" departLane="best" departSpeed="max" /><trip id="v_229" type="car" depart="540" from="S2C" to="C2N" departLane="best" departSpeed="max" /><trip id="v_230" type="car" depart="540" from="S2C" to="C2N" departLane="best" departSpeed="max" /><trip id="v_231" type="car" depart="540" from="N2C" to="C2S" departLane="best" departSpeed="max" /><trip id="v_232" type="car" depart="540" from="N2C" to="C2S" departLane="best" departSpeed="max" /><trip id="v_233" type="car" depart="542" from="S2C" to="C2N" departLane="best" departSpeed="max" /><trip id="v_234" type="car" depart="544" from="S2C" to="C2N" departLane="best" departSpeed="max" /><trip id="v_235" type="truck" depart="546" from="S2C" to="C2N" departLane="best" departSpeed="max" /><trip id="v_236" type="car" depart="546" from="N2C" to="C2S" departLane="best" departSpeed="max" /><trip id="v_237" type="car" depart="546" from="N2C" to="C2S" departLane="best" departSpeed="max" /><trip id="v_238" type="car" depart="548" from="N2C" to="C2S" departLane="best" departSpeed="max" /><trip id="v_239" type="car" depart="551" from="S2C" to="C2N" departLane="best" departSpeed="max" /><trip id="v_240" type="car" depart="554" from="S2C" to="C2N" departLane="best" departSpeed="max" /><trip id="v_241" type="truck" depart="554